ckt7_Mon_rfi_18_der000.csv
fault_bus,fault_type,fault_R_ohm,Va_mag_pu,Va_ang_deg,Vb_mag_pu,Vb_ang_deg,Vc_mag_pu,Vc_ang_deg,Ia_mag_A,Ia_ang_deg,Ib_mag_A,Ib_ang_deg,Ic_mag_A,Ic_ang_deg
318412,SLG,0,0.124694,-118.1695,1.03486,-151.8554,1.033244,88.5977,4.4312,99.4778,10.1967,15.5823,14.2001,-132.0831
318412,SLG,10,1.02514,-31.5507,1.029415,-151.1967,1.021638,88.658,11.5449,120.8577,11.6521,0.6526,14.3093,-118.9893
318412,SLG,20,1.025146,-31.5277,1.029418,-151.1967,1.021636,88.6578,11.5449,120.8669,11.652,0.6592,14.3092,-118.9838
318412,SLG,30,1.025148,-31.52,1.029418,-151.1967,1.021635,88.6577,11.5448,120.87,11.652,0.6615,14.3092,-118.982
318412,SLG,40,1.025149,-31.5162,1.029419,-151.1967,1.021635,88.6577,11.5448,120.8716,11.652,0.6626,14.3092,-118.9811
318412,LL,0,0.116735,-114.0199,0.134146,122.5984,1.034811,88.1338,5.6508,59.1122,2.4797,49.1395,12.0698,-121.6123
318412,LL,10,1.025142,-31.5503,1.029401,-151.2428,1.021634,88.6581,11.5449,120.8441,11.6521,0.6337,14.3093,-119.0001
318412,LL,20,1.025147,-31.5275,1.029411,-151.2197,1.021634,88.6578,11.5449,120.8602,11.6521,0.6498,14.3093,-118.9893
318412,LL,30,1.025149,-31.5199,1.029414,-151.212,1.021634,88.6577,11.5449,120.8655,11.652,0.6552,14.3093,-118.9856
318412,LL,40,1.02515,-31.5161,1.029415,-151.2082,1.021634,88.6577,11.5449,120.8682,11.652,0.6578,14.3092,-118.9838
318412,3LG,0,0.128217,-113.6937,0.128765,126.6177,0.127776,6.4854,1.4846,38.7555,1.5022,-81.4712,1.8395,158.8139
318412,3LG,10,1.025138,-31.5503,1.029406,-151.2423,1.021619,88.6119,11.545,120.8306,11.6522,0.6203,14.3094,-119.024
318412,3LG,20,1.025145,-31.5275,1.029413,-151.2195,1.021626,88.6347,11.5449,120.8534,11.6521,0.6431,14.3093,-119.0012
318412,3LG,30,1.025147,-31.5199,1.029415,-151.2119,1.021629,88.6424,11.5449,120.861,11.6521,0.6507,14.3093,-118.9936
318412,3LG,40,1.025149,-31.5161,1.029416,-151.2081,1.02163,88.6462,11.5449,120.8648,11.6521,0.6545,14.3093,-118.9898
243937,SLG,0,0.012179,103.7819,1.323267,172.8295,1.726617,102.5388,9.8247,109.389,11.367,-6.7457,17.2206,-118.8936
243937,SLG,10,1.018487,-31.6606,1.031745,-151.4558,1.024607,88.9023,11.5571,120.8115,11.6538,0.5853,14.3024,-118.9527
243937,SLG,20,1.021811,-31.5829,1.030586,-151.3267,1.02312,88.7806,11.551,120.8437,11.6529,0.6255,14.3058,-118.9654
243937,SLG,30,1.022922,-31.5569,1.030198,-151.2835,1.022624,88.7397,11.5489,120.8545,11.6526,0.6389,14.307,-118.9697
243937,SLG,40,1.023479,-31.5438,1.030004,-151.2618,1.022376,88.7192,11.5479,120.8599,11.6525,0.6457,14.3075,-118.9719
243937,LL,0,0.022435,-37.6651,0.037044,96.5001,1.470585,83.368,7.156,57.3451,6.4509,54.3889,19.0387,-124.0656
243937,LL,10,1.021439,-31.4173,1.025127,-151.6092,1.026887,88.6444,11.5582,120.7868,11.6658,0.522,14.2985,-119.0664
243937,LL,20,1.023284,-31.4606,1.027265,-151.4036,1.024275,88.6511,11.5515,120.8315,11.6589,0.5938,14.3038,-119.0225
243937,LL,30,1.023904,-31.4752,1.027981,-151.3348,1.023398,88.6533,11.5493,120.8464,11.6566,0.6178,14.3056,-119.0078
243937,LL,40,1.024215,-31.4825,1.02834,-151.3003,1.022958,88.6544,11.5482,120.8538,11.6555,0.6298,14.3065,-119.0004
243937,3LG,0,0.031908,-96.622,0.032029,143.6903,0.031789,23.541,0.3694,55.822,0.3737,-64.4054,0.4577,175.8793
243937,3LG,10,1.023765,-31.6746,1.028032,-151.3658,1.020239,88.4877,11.5602,120.7084,11.6674,0.4988,14.3283,-119.1461
243937,3LG,20,1.024459,-31.5897,1.028727,-151.2813,1.020937,88.5726,11.5525,120.7923,11.6597,0.5823,14.3188,-119.0623
243937,3LG,30,1.02469,-31.5614,1.028958,-151.2531,1.021169,88.6009,11.5499,120.8202,11.6571,0.6102,14.3156,-119.0344
243937,3LG,40,1.024806,-31.5472,1.029073,-151.239,1.021285,88.6151,11.5487,120.8342,11.6558,0.6241,14.314,-119.0204
157347,SLG,0,0.399299,-24.0037,1.083552,-170.0281,1.337981,95.5538,11.2566,117.2704,12.3163,-2.0862,16.2918,-119.4372
157347,SLG,10,1.016597,-31.9937,1.034434,-151.4254,1.022807,89.0177,11.5628,120.7213,11.6544,0.5334,14.3126,-118.9635
157347,SLG,20,1.020873,-31.7514,1.031955,-151.3109,1.022195,88.839,11.5537,120.7981,11.6531,0.5993,14.311,-118.9708
157347,SLG,30,1.022299,-31.6696,1.031116,-151.2728,1.022002,88.7788,11.5507,120.824,11.6527,0.6214,14.3104,-118.9733
157347,SLG,40,1.023012,-31.6286,1.030694,-151.2538,1.021907,88.7486,11.5492,120.837,11.6525,0.6325,14.3101,-118.9746
157347,LL,0,0.501585,-33.1278,0.336965,-163.2074,1.244668,83.3631,8.8391,91.566,7.6576,19.9947,17.5126,-122.3328
157347,LL,10,1.01777,-31.6331,1.025881,-151.9109,1.027785,88.7877,11.5693,120.654,11.6715,0.3775,14.3018,-119.1162
157347,LL,20,1.02142,-31.5702,1.027683,-151.5561,1.024727,88.7251,11.557,120.7644,11.6617,0.5208,14.3053,-119.047
157347,LL,30,1.022655,-31.5487,1.02827,-151.4368,1.0237,88.7031,11.5529,120.8015,11.6584,0.569,14.3066,-119.0241
157347,LL,40,1.023276,-31.5378,1.02856,-151.377,1.023185,88.6919,11.5509,120.8201,11.6568,0.5931,14.3072,-119.0126
157347,3LG,0,0.441506,-43.5349,0.443193,-163.2304,0.439906,76.6267,5.1113,108.9068,5.1712,-11.3226,6.3328,-131.036
157347,3LG,10,1.022754,-31.862,1.027025,-151.5533,1.019233,88.3003,11.5714,120.5223,11.6786,0.3132,14.3422,-119.3321
157347,3LG,20,1.023961,-31.6839,1.028231,-151.3755,1.020441,88.4784,11.558,120.6987,11.6652,0.489,14.3256,-119.1558
157347,3LG,30,1.02436,-31.6243,1.028629,-151.316,1.020841,88.538,11.5536,120.7577,11.6608,0.5478,14.3201,-119.0968
157347,3LG,40,1.024559,-31.5944,1.028827,-151.2862,1.02104,88.5678,11.5514,120.7873,11.6586,0.5773,14.3174,-119.0673
298162,SLG,0,0.016318,131.2257,1.220754,-172.8681,1.394982,101.2563,8.3795,111.4985,11.4183,3.1654,16.2563,-120.8202
298162,SLG,10,1.008839,-32.9775,1.042001,-151.4227,1.019082,89.387,11.5859,120.4412,11.6603,0.3546,14.3401,-118.9999
298162,SLG,20,1.017019,-32.2465,1.035784,-151.3068,1.020242,89.0236,11.565,120.6566,11.6558,0.5095,14.3251,-118.9901
298162,SLG,30,1.019735,-32.0004,1.033679,-151.2694,1.02068,88.9019,11.5582,120.7293,11.6544,0.5614,14.3199,-118.9864
298162,SLG,40,1.021092,-31.8769,1.032621,-151.251,1.020909,88.8409,11.5548,120.7659,11.6538,0.5875,14.3172,-118.9845
298162,LL,0,0.009697,46.3839,0.016941,77.6881,1.342258,85.3948,6.0338,58.1526,5.8961,57.7028,16.892,-122.0621
298162,LL,10,1.006184,-32.2424,1.025571,-152.8839,1.031672,89.1513,11.6107,120.2329,11.6985,-0.0868,14.3143,-119.3064
298162,LL,20,1.015565,-31.8798,1.027628,-152.0451,1.026634,88.9131,11.5774,120.5524,11.6749,0.2868,14.3114,-119.141
298162,LL,30,1.018738,-31.7562,1.028256,-151.7634,1.024962,88.8299,11.5664,120.6599,11.6672,0.4125,14.3106,-119.0865
298162,LL,40,1.020333,-31.6939,1.028558,-151.6221,1.024128,88.7875,11.561,120.7138,11.6633,0.4756,14.3102,-119.0594
298162,3LG,0,0.005792,-102.1566,0.005809,138.0916,0.005773,17.9612,0.0671,50.2533,0.0678,-69.9877,0.0831,170.3137
298162,3LG,10,1.018649,-32.4703,1.022951,-152.1629,1.015167,87.692,11.617,119.919,11.7241,-0.2884,14.3986,-119.9351
298162,3LG,20,1.021928,-31.9889,1.026214,-151.6812,1.018429,88.1734,11.5805,120.3962,11.6876,0.1874,14.3533,-119.4581
298162,3LG,30,1.023009,-31.8278,1.027289,-151.52,1.019504,88.3345,11.5685,120.5559,11.6756,0.3466,14.3385,-119.2985
298162,3LG,40,1.023547,-31.7471,1.027824,-151.4393,1.020039,88.4152,11.5625,120.6359,11.6697,0.4263,14.3311,-119.2186
165448,SLG,0,0.016192,131.4538,1.225467,-172.4968,1.387468,101.4738,8.3527,112.1446,11.4696,3.29,16.1719,-120.7375
165448,SLG,10,1.007992,-33.105,1.042993,-151.4143,1.018466,89.4314,11.5887,120.4064,11.6611,0.3338,14.3441,-119.0042
165448,SLG,20,1.016604,-32.311,1.036288,-151.3018,1.019916,89.0457,11.5663,120.6389,11.6561,0.499,14.3271,-118.9924
165448,SLG,30,1.019461,-32.0436,1.034017,-151.2659,1.020458,88.9166,11.5591,120.7174,11.6546,0.5544,14.3212,-118.988
165448,SLG,40,1.020887,-31.9094,1.032874,-151.2483,1.020741,88.8519,11.5555,120.7569,11.6539,0.5822,14.3183,-118.9857
165448,LL,0,0.009729,47.9276,0.016488,77.1339,1.340623,85.5792,6.0196,58.3189,5.8914,57.9058,16.8667,-121.8777
165448,LL,10,1.004708,-32.3243,1.025685,-153.0018,1.032064,89.2023,11.6159,120.1808,11.7017,-0.1432,14.3162,-119.3276
165448,LL,20,1.014817,-31.922,1.02771,-152.1045,1.026819,88.9398,11.5799,120.526,11.6764,0.2581,14.3123,-119.1515
165448,LL,30,1.018237,-31.7846,1.028316,-151.803,1.025082,88.848,11.5681,120.6422,11.6682,0.3934,14.3112,-119.0934
165448,LL,40,1.019956,-31.7153,1.028605,-151.6519,1.024217,88.8012,11.5623,120.7005,11.6641,0.4612,14.3107,-119.0645
165448,3LG,0,0.005378,-102.2099,0.005393,138.0318,0.005359,17.9037,0.0623,50.1966,0.063,-70.0457,0.0771,170.2574
165448,3LG,10,1.018146,-32.5446,1.022457,-152.2375,1.014674,87.6178,11.6226,119.8453,11.7296,-0.3619,14.4054,-120.0087
165448,3LG,20,1.021682,-32.0262,1.025971,-151.7187,1.018187,88.1361,11.5832,120.3592,11.6903,0.1504,14.3567,-119.4951
165448,3LG,30,1.022846,-31.8527,1.027128,-151.5451,1.019344,88.3096,11.5703,120.5312,11.6774,0.3219,14.3407,-119.3232
165448,3LG,40,1.023425,-31.7658,1.027704,-151.4581,1.019919,88.3965,11.5639,120.6173,11.671,0.4078,14.3328,-119.2372
165449,SLG,0,0.014522,131.5438,1.260148,-171.1199,1.360351,103.0076,8.4023,115.5167,11.7867,3.4864,15.8337,-119.9243
165449,SLG,10,0.99985,-34.3798,1.05343,-151.3429,1.012293,89.9097,11.6144,120.0667,11.6662,0.1305,14.3822,-119.0294
165449,SLG,20,1.012675,-32.9588,1.041612,-151.2548,1.016559,89.2818,11.5782,120.4648,11.6577,0.3967,14.3469,-119.0087
165449,SLG,30,1.016876,-32.4778,1.037588,-151.2319,1.01816,89.0731,11.5668,120.6005,11.6555,0.4861,14.3346,-118.9997
165449,SLG,40,1.018961,-32.2359,1.03556,-151.2218,1.018994,88.969,11.5612,120.6689,11.6545,0.531,14.3283,-118.9949
165449,LL,0,0.00913,54.5779,0.013261,73.6548,1.340004,86.5612,6.0034,59.1873,5.9259,58.9717,16.8781,-120.9046
165449,LL,10,0.990203,-33.1037,1.027546,-154.1907,1.036591,89.7249,11.6639,119.6768,11.728,-0.6939,14.3285,-119.5265
165449,LL,20,1.007442,-32.33,1.028998,-152.703,1.028891,89.2184,11.6028,120.2694,11.6884,-0.0224,14.3183,-119.248
165449,LL,30,1.013296,-32.0608,1.029257,-152.2028,1.026416,89.0375,11.5831,120.4701,11.6759,0.2052,14.3151,-119.1571
165449,LL,40,1.016242,-31.924,1.029343,-151.9519,1.025198,88.9448,11.5734,120.571,11.6698,0.3197,14.3136,-119.112
165449,3LG,0,0.003185,-103.5517,0.003191,136.6169,0.003176,16.5166,0.0369,48.8185,0.0373,-71.4393,0.0457,168.8824
165449,3LG,10,1.013831,-33.2639,1.018255,-152.9641,1.010512,86.8994,11.6703,119.1295,11.7772,-1.0765,14.4642,-120.7235
165449,3LG,20,1.019587,-32.3887,1.023938,-152.0849,1.016172,87.7743,11.6061,119.9985,11.7131,-0.2098,14.3849,-119.8553
165449,3LG,30,1.021463,-32.095,1.025789,-151.7898,1.018015,88.0678,11.5854,120.2901,11.6924,0.0811,14.3593,-119.564
165449,3LG,40,1.022394,-31.9478,1.026705,-151.6419,1.018928,88.2149,11.5751,120.4363,11.6822,0.227,14.3466,-119.4179
287274,SLG,0,0.06958,-58.0877,1.26949,-168.1059,1.29452,103.562,8.916,116.9738,12.0715,3.1484,15.6199,-119.243
287274,SLG,10,0.989838,-35.0985,1.059219,-151.3294,1.009215,90.1917,11.6533,119.8824,11.6937,0.0174,14.4194,-119.0393
287274,SLG,20,1.007726,-33.338,1.044704,-151.2364,1.01473,89.4238,11.5969,120.3652,11.6675,0.3367,14.3664,-119.0171
287274,SLG,30,1.013592,-32.7347,1.039682,-151.2171,1.016877,89.1677,11.5791,120.5324,11.6618,0.4455,14.3478,-119.0063
287274,SLG,40,1.016505,-32.4302,1.037144,-151.2097,1.018008,89.0398,11.5703,120.6171,11.6591,0.5002,14.3383,-119.0001
287274,LL,0,0.106864,-51.5601,0.089341,158.3584,1.313943,87.6955,6.954,67.749,5.3604,49.0552,16.9216,-120.0714
287274,LL,10,0.982134,-33.7364,1.028827,-155.1559,1.046284,89.7933,11.6674,119.162,11.7179,-1.246,14.2852,-119.8761
287274,LL,20,1.000635,-32.5631,1.027006,-153.0627,1.030241,89.374,11.6366,120.1201,11.7158,-0.1857,14.3384,-119.3073
287274,LL,30,1.008704,-32.2216,1.028012,-152.4449,1.027277,89.1455,11.6054,120.3686,11.694,0.0943,14.3286,-119.1966
287274,LL,40,1.012779,-32.0467,1.028441,-152.1344,1.025828,89.0274,11.5901,120.4941,11.6833,0.2358,14.3237,-119.1416
287274,3LG,0,0.109706,-68.069,0.10986,172.0613,0.109412,51.9759,1.2701,84.2799,1.2836,-35.9832,1.5733,-155.6508
287274,3LG,10,1.006197,-33.6839,1.010716,-153.3898,1.003007,86.4805,11.7567,118.7176,11.8633,-1.4857,14.5708,-121.1342
287274,3LG,20,1.015782,-32.6066,1.020188,-152.3056,1.012436,87.5574,11.6484,119.7849,11.7553,-0.4219,14.4371,-120.0682
287274,3LG,30,1.018931,-32.242,1.023294,-151.9387,1.015529,87.9215,11.6134,120.146,11.7204,-0.062,14.3939,-119.7076
287274,3LG,40,1.020496,-32.0587,1.024836,-151.7542,1.017065,88.1046,11.596,120.3276,11.7031,0.119,14.3725,-119.5263
283954,SLG,0,0.075594,-59.0645,1.274417,-168.0065,1.292444,103.7835,8.9983,117.0602,12.1085,3.0117,15.6265,-119.0688
283954,SLG,10,0.984778,-35.7922,1.064871,-151.3195,1.006313,90.4714,11.6701,119.6999,11.712,-0.0932,14.4397,-119.046
283954,SLG,20,1.005335,-33.7004,1.047714,-151.2178,1.01297,89.5621,11.6043,120.2687,11.6689,0.2787,14.3773,-119.0237
283954,SLG,30,1.012033,-32.9794,1.041713,-151.2019,1.015639,89.2591,11.5838,120.4668,11.6625,0.4066,14.3553,-119.0117
283954,SLG,40,1.01535,-32.6148,1.038676,-151.1971,1.017055,89.1081,11.5738,120.5675,11.6596,0.471,14.344,-119.0045
283954,LL,0,0.113734,-52.9521,0.095646,158.4727,1.314363,87.8201,7.0492,68.1082,5.3283,48.4321,16.9625,-119.9986
283954,LL,10,0.973846,-34.131,1.029049,-155.8379,1.049489,90.0621,11.6974,118.8876,11.7353,-1.5496,14.292,-119.9921
283954,LL,20,0.996426,-32.7827,1.027511,-153.4054,1.03159,89.5252,11.6504,119.977,11.7234,-0.3432,14.3417,-119.3632
283954,LL,30,1.005867,-32.373,1.028439,-152.6745,1.028126,89.2505,11.6144,120.2717,11.6987,-0.012,14.3307,-119.2333
283954,LL,40,1.01064,-32.1621,1.028796,-152.3069,1.026445,89.1076,11.5967,120.421,11.6868,0.1554,14.3253,-119.169
283954,3LG,0,0.116628,-68.7103,0.116755,171.3768,0.116361,51.3168,1.3504,83.6192,1.3645,-36.6518,1.6727,-156.307
283954,3LG,10,1.003555,-34.0826,1.008194,-153.7968,1.000528,86.0833,11.7862,118.32,11.8926,-1.8831,14.6069,-121.5308
283954,3LG,20,1.014513,-32.8107,1.018989,-152.5138,1.011252,87.3544,11.6622,119.5815,11.769,-0.6252,14.454,-120.271
283954,3LG,30,1.018097,-32.3792,1.022509,-152.0785,1.014753,87.7853,11.6224,120.0094,11.7293,-0.1986,14.4049,-119.8438
283954,3LG,40,1.019875,-32.162,1.024253,-151.8595,1.016488,88.002,11.6027,120.2247,11.7097,0.0162,14.3806,-119.6288
283956,SLG,0,0.247624,-65.1255,1.268563,-164.6886,1.218812,103.5242,10.1784,113.4792,12.1548,1.2296,15.9605,-118.4721
283956,SLG,10,0.985147,-35.7062,1.064245,-151.3243,1.00669,90.4421,11.6689,119.7233,11.7103,-0.0792,14.4377,-119.0433
283956,SLG,20,1.005416,-33.6777,1.047545,-151.2199,1.013084,89.5549,11.6041,120.2749,11.6689,0.2824,14.3768,-119.0228
283956,SLG,30,1.012068,-32.9691,1.041637,-151.2029,1.015692,89.2559,11.5837,120.4696,11.6626,0.4082,14.355,-119.0112
283956,SLG,40,1.015369,-32.609,1.038632,-151.1978,1.017085,89.1062,11.5737,120.5691,11.6596,0.4719,14.3438,-119.0043
283956,LL,0,0.299367,-57.9833,0.289189,165.6323,1.277615,89.2005,8.5973,78.0836,5.1259,23.8582,16.7861,-120.0957
283956,LL,10,0.97502,-34.0848,1.028484,-155.7558,1.049107,90.0215,11.6947,118.9177,11.7349,-1.5152,14.2924,-119.9822
283956,LL,20,0.996727,-32.7691,1.027335,-153.3847,1.031514,89.5137,11.6498,119.9851,11.7234,-0.3342,14.3418,-119.3609
283956,LL,30,1.006004,-32.3666,1.028355,-152.6652,1.028095,89.2451,11.6141,120.2754,11.6988,-0.008,14.3308,-119.2324
283956,LL,40,1.010717,-32.1585,1.028747,-152.3017,1.026427,89.1045,11.5966,120.4231,11.6868,0.1578,14.3254,-119.1685
283956,3LG,0,0.3159,-66.6559,0.316498,173.4388,0.315217,53.391,3.6585,85.6877,3.6977,-34.5873,4.5317,-154.2462
283956,3LG,10,1.003675,-34.046,1.008303,-153.7594,1.000632,86.1199,11.7849,118.3568,11.8913,-1.8463,14.6053,-121.4942
283956,3LG,20,1.014539,-32.8013,1.019011,-152.5041,1.011273,87.3638,11.662,119.591,11.7688,-0.6158,14.4537,-120.2616
283956,3LG,30,1.018108,-32.3749,1.022518,-152.0742,1.014761,87.7895,11.6223,120.0136,11.7292,-0.1943,14.4047,-119.8396
283956,3LG,40,1.019881,-32.1595,1.024258,-151.857,1.016493,88.0044,11.6027,120.2271,11.7096,0.0186,14.3805,-119.6264
189963,SLG,0,0.018468,-24.0397,1.301059,-165.5647,1.238791,105.0531,8.1741,124.2359,12.4327,5.3775,14.6644,-119.3424
189963,SLG,10,0.950862,-37.615,1.084331,-151.6287,1.006998,90.9557,11.766,119.1057,11.7976,-0.5469,14.4858,-119.2679
189963,SLG,20,0.985923,-34.5531,1.054563,-151.2024,1.009285,89.8911,11.684,120.0578,11.7199,0.149,14.4466,-119.0381
189963,SLG,30,0.999,-33.5635,1.046415,-151.1837,1.012967,89.4794,11.6368,120.3186,11.696,0.3161,14.4025,-119.0245
189963,SLG,40,1.005543,-33.0588,1.042251,-151.1804,1.014968,89.2734,11.6135,120.4534,11.6845,0.4016,14.3798,-119.0155
189963,LL,0,0.023758,-8.1013,0.024743,-152.8772,1.307155,89.212,5.8332,64.3738,5.9582,58.7714,16.5595,-118.3484
189963,LL,10,0.929887,-34.9885,1.000491,-157.4117,1.057265,90.5881,11.993,118.311,11.9938,-2.2046,14.4926,-120.2513
189963,LL,20,0.978219,-33.5023,1.019947,-154.5016,1.041703,89.6434,11.7296,119.4178,11.7857,-0.9456,14.3584,-119.7313
189963,LL,30,0.990123,-32.7316,1.019792,-153.2385,1.030295,89.4825,11.7098,120.045,11.7838,-0.2607,14.3977,-119.3267
189963,LL,40,0.998706,-32.438,1.022387,-152.7339,1.028027,89.2872,11.6679,120.2476,11.7504,-0.034,14.3757,-119.2395
189963,3LG,0,0.026699,-20.088,0.026695,-140.0892,0.026699,99.9051,0.3093,132.1715,0.3122,11.9366,0.3834,-107.7064
189963,3LG,10,0.975834,-35.2599,0.980809,-154.9955,0.973271,84.9192,12.1135,117.171,12.2191,-3.0219,15.011,-122.6729
189963,3LG,20,0.997687,-33.3151,1.002322,-153.0279,0.994663,86.8561,11.8544,119.0965,11.9608,-1.1037,14.6914,-120.7527
189963,3LG,30,1.006802,-32.7227,1.011329,-152.4284,1.003619,87.4462,11.7497,119.6795,11.8563,-0.524,14.5621,-120.1714
189963,3LG,40,1.011375,-32.4224,1.015843,-152.1246,1.00811,87.7452,11.6979,119.9748,11.8046,-0.2304,14.4982,-119.877
181977,SLG,0,0.11088,-48.0047,1.285322,-164.3896,1.212366,104.3164,8.9172,121.7802,12.4741,4.1593,14.9425,-118.8854
181977,SLG,10,0.94723,-37.9896,1.087714,-151.6551,1.005867,91.1418,11.7777,119.0148,11.8096,-0.6036,14.4959,-119.2574
181977,SLG,20,0.984195,-34.7802,1.056517,-151.1999,1.008297,89.9877,11.6895,119.9994,11.7214,0.1131,14.4534,-119.0382
181977,SLG,30,0.997865,-33.7246,1.047785,-151.178,1.012204,89.5445,11.6403,120.2764,11.6967,0.2906,14.4074,-119.026
181977,SLG,40,1.004701,-33.1833,1.043303,-151.1745,1.014355,89.3224,11.616,120.4206,11.685,0.382,14.3836,-119.0172
181977,LL,0,0.138977,-43.3036,0.124261,-179.8108,1.286587,89.3567,6.8951,73.166,5.6042,46.1207,16.7658,-118.5192
181977,LL,10,0.925595,-35.1503,0.999433,-157.8121,1.059634,90.7065,12.0124,118.1696,12.0064,-2.3687,14.5137,-120.3142
181977,LL,20,0.9755,-33.6242,1.019903,-154.7321,1.042831,89.734,11.7395,119.3296,11.7916,-1.0456,14.3604,-119.7677
181977,LL,30,0.988251,-32.8241,1.019918,-153.3954,1.030961,89.5494,11.7162,119.9823,11.7874,-0.3309,14.3991,-119.3513
181977,LL,40,0.99726,-32.5115,1.022536,-152.8536,1.028505,89.3402,11.6727,120.199,11.753,-0.0882,14.3767,-119.2582
181977,3LG,0,0.141263,-52.8405,0.141313,-172.828,0.141226,67.1725,1.6364,99.435,1.6524,-20.807,2.0284,-140.4481
181977,3LG,10,0.974187,-35.4857,0.979212,-155.2292,0.971751,84.6925,12.133,116.9442,12.2386,-3.2488,15.0348,-122.8993
181977,3LG,20,0.996834,-33.4455,1.001514,-153.1622,0.993884,86.7262,11.864,118.9661,11.9703,-1.2342,14.7031,-120.8828
181977,3LG,30,1.006222,-32.8139,1.010784,-152.5222,1.003092,87.3556,11.756,119.5884,11.8626,-0.6152,14.5698,-120.2623
181977,3LG,40,1.010937,-32.4924,1.015433,-152.1966,1.007712,87.6756,11.7026,119.9048,11.8094,-0.3004,14.504,-119.9467
181924,SLG,0,0.005264,-15.5396,1.309178,-166.3766,1.257469,105.4152,8.2156,123.5947,12.4087,5.0917,14.7847,-119.1145
181924,SLG,10,0.938327,-39.1757,1.097018,-151.6696,1.001862,91.6268,11.8097,118.7169,11.8442,-0.7867,14.5273,-119.26
181924,SLG,20,0.980056,-35.3821,1.06132,-151.1821,1.005685,90.2203,11.7034,119.8415,11.7365,0.0183,14.4711,-119.0474
181924,SLG,30,0.995177,-34.1286,1.051058,-151.1587,1.01031,89.697,11.6489,120.1693,11.6989,0.2259,14.4196,-119.0339
181924,SLG,40,1.002712,-33.4869,1.045768,-151.1576,1.012883,89.4355,11.6223,120.3395,11.6863,0.3334,14.3929,-119.024
181924,LL,0,0.006473,-11.9155,0.005779,-146.8888,1.316798,89.0224,5.8974,62.0486,5.9268,60.6788,16.6539,-118.5389
181924,LL,10,0.912298,-35.8056,0.998584,-158.9432,1.065143,91.0905,12.072,117.7068,12.0415,-2.872,14.5708,-120.5114
181924,LL,20,0.968505,-33.983,1.020214,-155.3016,1.045258,89.9664,11.7656,119.0918,11.8067,-1.3057,14.3675,-119.8661
181924,LL,30,0.983588,-33.0715,1.020322,-153.7727,1.032424,89.7128,11.7327,119.8224,11.7968,-0.5057,14.4037,-119.4149
181924,LL,40,0.993747,-32.7,1.022907,-153.1363,1.029551,89.4659,11.6847,120.0785,11.7599,-0.2199,14.3802,-119.3051
181924,3LG,0,0.006537,-20.7512,0.006539,-140.7269,0.006536,99.267,0.0757,131.5246,0.0765,11.2943,0.0939,-108.3539
181924,3LG,10,0.969215,-36.1741,0.97431,-155.927,0.966966,84.0045,12.1936,116.2581,12.299,-3.9338,15.1092,-123.5843
181924,3LG,20,0.994523,-33.7891,0.999257,-153.5102,0.991674,86.3838,11.8906,118.6241,11.9969,-1.5757,14.7358,-121.224
181924,3LG,30,1.004717,-33.0429,1.00932,-152.754,1.001654,87.1276,11.773,119.3607,11.8795,-0.8426,14.5907,-120.4895
181924,3LG,40,1.009822,-32.6641,1.01435,-152.3703,1.006648,87.5048,11.7151,119.7342,11.8217,-0.4708,14.5192,-120.117
181993,SLG,0,0.000535,-173.8183,1.312279,-166.6636,1.26413,105.5511,8.222,123.2587,12.3912,4.9948,14.832,-119.0504
181993,SLG,10,0.932953,-39.8794,1.102728,-151.6929,0.999699,91.932,11.8285,118.5431,11.8647,-0.8943,14.5445,-119.2541
181993,SLG,20,0.977508,-35.7601,1.064419,-151.1749,1.004079,90.3727,11.7117,119.7433,11.7459,-0.0407,14.4817,-119.0503
181993,SLG,30,0.993525,-34.3867,1.053188,-151.1482,1.009109,89.7974,11.6541,120.1014,11.6999,0.1847,14.427,-119.0376
181993,SLG,40,1.001493,-33.6826,1.047383,-151.1476,1.011934,89.5102,11.626,120.2876,11.687,0.3022,14.3986,-119.0275
181993,LL,0,0.000511,-34.8822,0.001223,112.4956,1.320609,88.9684,5.9262,61.3214,5.9054,61.21,16.683,-118.6179
181993,LL,10,0.904811,-36.1669,0.997814,-159.6277,1.068781,91.3025,12.1058,117.435,12.0612,-3.1698,14.605,-120.6304
181993,LL,20,0.964314,-34.1992,1.020435,-155.6611,1.046883,90.1082,11.7808,118.9443,11.8152,-1.4678,14.3707,-119.9284
181993,LL,30,0.980716,-33.2252,1.020634,-154.0154,1.033416,89.8161,11.7425,119.7212,11.8021,-0.6169,14.4058,-119.4554
181993,LL,40,0.991564,-32.8188,1.023205,-153.3191,1.030258,89.5465,11.6919,120.0015,11.7637,-0.3044,14.3818,-119.3352
181993,3LG,0,0.000968,-88.0593,0.000968,151.9635,0.000968,31.9284,0.0112,64.2082,0.0113,-56.0197,0.0139,-175.6823
181993,3LG,10,0.966514,-36.5889,0.971613,-156.3452,0.964338,83.589,12.227,115.8447,12.3324,-4.3463,15.1503,-123.9974
181993,3LG,20,0.993232,-34.0054,0.997982,-153.7283,0.990428,86.1678,11.9056,118.4088,12.0118,-1.7906,14.7542,-121.439
181993,3LG,30,1.003872,-33.189,1.008489,-152.9013,1.000841,86.9818,11.7826,119.2153,11.8891,-0.9877,14.6025,-120.6347
181993,3LG,40,1.009194,-32.7744,1.013735,-152.4815,1.006045,87.3948,11.7221,119.6244,11.8287,-0.5803,14.5279,-120.2265
181994,SLG,0,0.000513,-176.3778,1.310738,-166.6474,1.263692,105.4877,8.2071,123.2067,12.381,5.0246,14.8313,-119.0967
181994,SLG,10,0.926003,-40.578,1.107827,-151.7246,0.997984,92.2102,11.8556,118.3685,11.8912,-1.0062,14.5658,-119.2613
181994,SLG,20,0.974121,-36.1428,1.067258,-151.1715,1.002666,90.5139,11.7242,119.6412,11.7584,-0.1043,14.4946,-119.0605
181994,SLG,30,0.991306,-34.6494,1.05515,-151.1401,1.008027,89.8907,11.6621,120.0299,11.7034,0.1399,14.4361,-119.0463
181994,SLG,40,0.999847,-33.8824,1.048875,-151.1392,1.01107,89.5796,11.6319,120.2327,11.6894,0.2682,14.4056,-119.035
181994,LL,0,0.00047,-32.8464,0.001134,110.8319,1.319909,88.9531,5.921,61.3018,5.9017,61.2013,16.6715,-118.6326
181994,LL,10,0.896314,-36.5492,0.994727,-160.3176,1.072201,91.4789,12.1551,117.147,12.0961,-3.4808,14.6515,-120.7684
181994,LL,20,0.959511,-34.4308,1.019499,-156.0291,1.048426,90.2341,11.8035,118.785,11.8313,-1.6401,14.3806,-120.0031
181994,LL,30,0.977414,-33.3905,1.020187,-154.2651,1.034357,89.9096,11.7572,119.6111,11.8125,-0.7358,14.4123,-119.5048
181994,LL,40,0.989049,-32.947,1.022938,-153.5077,1.030926,89.62,11.7027,119.9176,11.7713,-0.395,14.3867,-119.3721
181994,3LG,0,0.000888,-88.751,0.000889,151.2857,0.000888,31.244,0.0103,63.5246,0.0104,-56.6999,0.0128,-176.3712
181994,3LG,10,0.96203,-37.0364,0.967116,-156.7946,0.959906,83.1415,12.2832,115.4009,12.3885,-4.7883,15.2197,-124.4406
181994,3LG,20,0.991021,-34.2421,0.995779,-153.9662,0.988253,85.9316,11.9317,118.1745,12.0378,-2.024,14.7864,-121.673
181994,3LG,30,1.002407,-33.3498,1.007033,-153.0628,0.999403,86.8217,11.7994,119.0562,11.9059,-1.1462,14.6232,-120.7934
181994,3LG,40,1.008101,-32.8961,1.012649,-152.6037,1.004971,87.2736,11.7345,119.5041,11.8411,-0.7002,14.5432,-120.3466
181891,SLG,0,0.246296,-32.4451,1.237703,-163.4418,1.193872,102.0237,10.145,122.2517,12.7802,2.4861,15.2353,-118.0105
181891,SLG,10,0.93531,-38.8451,1.095695,-151.7851,1.004397,91.6148,11.8177,118.8109,11.8465,-0.738,14.5222,-119.2222
181891,SLG,20,0.97885,-35.323,1.061238,-151.2189,1.006294,90.2346,11.707,119.8596,11.7385,0.0259,14.4709,-119.0353
181891,SLG,30,0.994508,-34.1143,1.051157,-151.1751,1.010525,89.7093,11.6509,120.1745,11.6999,0.2275,14.4199,-119.0281
181891,SLG,40,1.002272,-33.4857,1.045897,-151.1664,1.012968,89.4455,11.6236,120.3407,11.687,0.3333,14.3933,-119.0206
181891,LL,0,0.262848,-33.0996,0.2443,-155.869,1.248561,88.8142,7.2626,84.1091,6.8008,36.4206,17.1421,-118.7088
181891,LL,10,0.914423,-35.4581,0.992789,-158.7963,1.066173,90.9178,12.0763,117.84,12.056,-2.7625,14.5828,-120.4803
181891,LL,20,0.968582,-33.8939,1.018463,-155.2983,1.045896,89.9295,11.7688,119.1187,11.812,-1.2877,14.3687,-119.8632
181891,LL,30,0.983423,-33.0368,1.019517,-153.7845,1.032801,89.7018,11.7349,119.8301,11.7997,-0.5028,14.4043,-119.4152
181891,LL,40,0.993556,-32.6838,1.022447,-153.1496,1.029803,89.4626,11.6863,120.0804,11.7617,-0.221,14.3806,-119.3062
181891,3LG,0,0.257158,-35.6932,0.257521,-155.5819,0.256861,84.3657,2.9784,116.6326,3.0094,-3.5964,3.6919,-123.2667
181891,3LG,10,0.968359,-36.0571,0.973242,-155.8044,0.965959,84.1124,12.2056,116.375,12.3113,-3.8157,15.1244,-123.4697
181891,3LG,20,0.994154,-33.773,0.998802,-153.4927,0.991259,86.3959,11.8954,118.6399,12.0018,-1.5594,14.7418,-121.2091
181891,3LG,30,1.004498,-33.0419,1.00905,-152.7523,1.001412,87.1261,11.7758,119.3614,11.8823,-0.8416,14.5941,-120.4893
181891,3LG,40,1.00967,-32.667,1.014163,-152.3728,1.006481,87.5001,11.717,119.731,11.8237,-0.4738,14.5216,-120.1205
255335,SLG,0,0.016231,-53.325,1.307953,-165.8861,1.246225,105.392,8.2418,123.4933,12.4142,5.1329,14.7534,-119.1449
255335,SLG,10,0.909728,-41.5737,1.11521,-151.79,0.995888,92.6241,11.9235,118.1444,11.9524,-1.1452,14.615,-119.2603
255335,SLG,20,0.970404,-36.9682,1.078438,-151.4296,1.006681,90.5547,11.6928,119.2594,11.7384,-0.4304,14.4415,-119.2931
255335,SLG,30,0.985689,-35.0537,1.058216,-151.1318,1.006406,90.0392,11.6842,119.9246,11.7197,0.0747,14.457,-119.057
255335,SLG,40,0.995635,-34.1928,1.05123,-151.1288,1.009751,89.6908,11.6483,120.1505,11.6986,0.2172,14.4216,-119.0446
255335,LL,0,0.020131,-32.7697,0.023095,-178.8359,1.312562,89.2201,5.9887,63.7807,5.8444,58.8417,16.6291,-118.4572
255335,LL,10,0.878502,-37.0732,0.983348,-161.3115,1.077409,91.7132,12.2834,116.7576,12.1989,-3.9123,14.764,-120.9499
255335,LL,20,0.949161,-34.7711,1.014638,-156.5896,1.050916,90.4201,11.865,118.5531,11.8817,-1.8937,14.4172,-120.1119
255335,LL,30,0.970219,-33.6393,1.017239,-154.6522,1.0359,90.0521,11.7976,119.447,11.8459,-0.9145,14.4368,-119.5784
255335,LL,40,0.983538,-33.1423,1.02084,-153.8025,1.032026,89.7337,11.7327,119.7908,11.7961,-0.5326,14.405,-119.4277
255335,3LG,0,0.023869,-44.6515,0.023911,-164.5947,0.023875,75.3828,0.2766,107.6473,0.2795,-12.5768,0.343,-132.2541
255335,3LG,10,0.949271,-37.6799,0.954289,-157.4399,0.947214,82.4981,12.4465,114.7682,12.5519,-5.4154,15.4217,-125.0715
255335,3LG,20,0.98446,-34.6,0.989207,-154.3253,0.981746,85.5747,12.0099,117.8237,12.116,-2.3719,14.8831,-122.0228
255335,3LG,30,0.997996,-33.5967,1.002622,-153.3106,0.995033,86.5756,11.8506,118.8145,11.957,-1.3859,14.6865,-121.0344
255335,3LG,40,1.00478,-33.0844,1.009331,-152.7928,1.001683,87.0861,11.7726,119.3198,11.8791,-0.883,14.5902,-120.5304
182030,SLG,0,0.056297,-52.4166,1.300134,-165.2747,1.232192,105.0408,8.5292,122.5508,12.431,4.6955,14.8459,-119.0099
182030,SLG,10,0.909821,-41.4707,1.114624,-151.8031,0.996377,92.5997,11.9225,118.1713,11.9505,-1.1293,14.6126,-119.2548
182030,SLG,20,0.970389,-36.9406,1.078284,-151.4348,1.006842,90.5495,11.6927,119.2671,11.7381,-0.4261,14.4408,-119.291
182030,SLG,30,0.985675,-35.0413,1.058148,-151.1346,1.006483,90.0372,11.6842,119.9281,11.7196,0.0766,14.4566,-119.0559
182030,SLG,40,0.995624,-34.1857,1.051192,-151.1305,1.009797,89.6897,11.6483,120.1526,11.6987,0.2183,14.4215,-119.0439
182030,LL,0,0.068369,-39.1427,0.072002,-179.7446,1.303138,89.3452,6.3251,68.3756,5.7356,53.1066,16.6877,-118.5131
182030,LL,10,0.879389,-37.0007,0.982755,-161.2299,1.077222,91.6765,12.2806,116.7988,12.1987,-3.8719,14.7622,-120.9341
182030,LL,20,0.949395,-34.7489,1.014416,-156.5692,1.050909,90.4084,11.8645,118.5646,11.8819,-1.8826,14.4171,-120.1079
182030,LL,30,0.97032,-33.6287,1.017129,-154.6433,1.035907,90.0466,11.7975,119.4522,11.846,-0.9094,14.4368,-119.5767
182030,LL,40,0.983594,-33.1361,1.020775,-153.7976,1.032033,89.7305,11.7326,119.7938,11.7961,-0.5297,14.405,-119.4267
182030,3LG,0,0.076295,-48.9742,0.076434,-168.8957,0.076284,71.0704,0.8839,103.3357,0.8933,-16.8878,1.0961,-136.5674
182030,3LG,10,0.949377,-37.627,0.95438,-157.3862,0.947304,82.5505,12.4453,114.8211,12.5507,-5.3625,15.4202,-125.0188
182030,3LG,20,0.984475,-34.5861,0.989217,-154.3113,0.981757,85.5884,12.0098,117.8376,12.1159,-2.358,14.8829,-122.009
182030,3LG,30,0.998001,-33.5904,1.002624,-153.3043,0.995035,86.5818,11.8506,118.8208,11.957,-1.3797,14.6865,-121.0282
182030,3LG,40,1.004782,-33.0809,1.009332,-152.7892,1.001684,87.0896,11.7726,119.3234,11.8791,-0.8795,14.5902,-120.5269
182153,SLG,0,0.00035,-85.7416,1.31543,-163.8927,1.200704,105.7666,2526.6276,94.3543,12.5362,6.5315,14.2069,-119.6642
182153,SLG,10,0.858261,-43.2978,1.128233,-151.918,0.99257,93.3647,629.425,136.3449,12.1509,-1.2675,14.78,-119.2255
182153,SLG,20,0.937179,-37.7939,1.079987,-151.1913,0.996964,91.1691,348.3358,141.4444,11.8928,-0.3258,14.6222,-119.0725
182153,SLG,30,0.966077,-35.8211,1.064226,-151.1252,1.003381,90.3371,242.6067,143.0294,11.7894,-0.0293,14.5259,-119.0661
182153,SLG,40,0.980722,-34.789,1.055914,-151.1153,1.007239,89.9167,187.1815,143.6843,11.7399,0.1306,14.4748,-119.0549
182153,LL,0,0.000467,-64.3934,0.000512,145.7053,1.300381,90.1292,3364.1446,115.5277,3683.4107,-34.2054,16.3507,-117.4592
182153,LL,10,0.825583,-37.9248,0.937991,-163.0373,1.086875,92.1006,605.7617,141.5543,687.0368,16.5765,15.1401,-121.1628
182153,LL,20,0.917386,-35.3713,0.99198,-157.6382,1.055922,90.7625,341.1094,143.7234,368.1044,21.576,14.5753,-120.2838
182153,LL,30,0.947816,-34.0915,1.002474,-155.3945,1.039105,90.3244,238.1945,144.6147,251.4173,23.4153,14.5438,-119.7018
182153,LL,40,0.966237,-33.5029,1.009902,-154.3746,1.034345,89.9551,184.552,144.8311,192.5007,24.0502,14.4858,-119.5232
182153,3LG,0,0.000545,-78.6982,0.000547,161.3561,0.000546,41.329,3925.9496,101.3017,3936.0095,-18.6439,3928.1265,-138.671
182153,3LG,10,0.902703,-38.7747,0.907544,-158.5424,0.900892,81.4053,661.537,140.7016,665.0745,20.9256,663.0182,-99.2423
182153,3LG,20,0.959207,-35.252,0.963917,-154.9823,0.956675,84.9255,356.2635,143.8314,358.0086,24.0838,357.9863,-96.2057
182153,3LG,30,0.980696,-34.057,0.985313,-153.7743,0.977867,86.1178,246.1031,144.6438,247.2612,24.9004,248.012,-95.481
182153,3LG,40,0.991631,-33.4397,0.996183,-153.1506,0.988641,86.733,189.134,144.8873,190.0037,25.142,191.1649,-95.3198
182158,SLG,0,0.083701,-39.1031,1.2931,-162.9614,1.180051,104.6694,2322.1676,94.9703,12.5509,6.6824,14.1298,-119.9948
182158,SLG,10,0.858515,-42.9352,1.126468,-151.9664,0.994167,93.2954,618.4522,135.6555,12.2089,-1.3242,14.8194,-119.2825
182158,SLG,20,0.937082,-37.6934,1.079511,-151.2116,0.997515,91.1553,345.2422,141.0125,11.9235,-0.3805,14.6458,-119.1094
182158,SLG,30,0.966004,-35.7746,1.064007,-151.1358,1.003652,90.3318,241.1784,142.7196,11.81,-0.0721,14.5426,-119.0937
182158,SLG,40,0.980672,-34.7622,1.055789,-151.1217,1.007399,89.914,186.3621,143.4433,11.7535,0.0957,14.4877,-119.0771
182158,LL,0,0.091868,-38.0245,0.085845,-163.8172,1.27863,90.1074,3063.4969,116.3211,3373.9687,-33.17,16.2731,-117.362
182158,LL,10,0.829069,-37.6474,0.935802,-162.782,1.086493,91.9759,594.535,141.2316,678.1692,15.869,15.2411,-121.3057
182158,LL,20,0.918338,-35.2807,0.991104,-157.5739,1.055994,90.7211,337.5843,143.4837,365.931,21.146,14.6254,-120.3829
182158,LL,30,0.948233,-34.0474,1.002027,-155.3665,1.039179,90.3047,236.5061,144.4287,250.4863,23.1104,14.5757,-119.7742
182158,LL,40,0.966471,-33.4768,1.009632,-154.3589,1.034398,89.9436,183.5636,144.6796,191.9869,23.8148,14.5097,-119.5795
182158,3LG,0,0.091306,-42.0611,0.091644,-161.8681,0.091206,78.0787,3583.4919,102.2637,3593.6645,-17.6763,3585.478,-137.7058
182158,3LG,10,0.903424,-38.6051,0.908205,-158.3706,0.901553,81.5723,652.4285,140.2511,655.9178,20.4704,653.9901,-99.6943
182158,3LG,20,0.95936,-35.205,0.964047,-154.9349,0.956812,84.9715,353.7354,143.5591,355.4748,23.8086,355.4909,-96.4776
182158,3LG,30,0.980756,-34.0352,0.985363,-153.7524,0.977921,86.1392,244.9365,144.448,246.0934,24.7027,246.8629,-95.676
182158,3LG,40,0.991662,-33.4271,0.996208,-153.1379,0.988668,86.7454,188.4642,144.7335,189.3337,24.9867,190.5062,-95.4728
182162,SLG,0,0.153125,-37.8072,1.273988,-162.1995,1.164157,103.6908,2151.2884,95.3589,12.5918,6.2311,14.2181,-119.9228
182162,SLG,10,0.85873,-42.5958,1.12484,-152.0129,0.995685,93.2319,608.3229,134.9776,12.2239,-1.313,14.8289,-119.3035
182162,SLG,20,0.941539,-37.8431,1.085893,-151.4862,1.004109,90.9597,343.9269,140.3512,11.882,-0.6281,14.5688,-119.3484
182162,SLG,30,0.965917,-35.7308,1.06381,-151.1462,1.003914,90.3273,239.8591,142.4157,11.8166,-0.0859,14.5479,-119.107
182162,SLG,40,0.980612,-34.737,1.055677,-151.1281,1.007553,89.9117,185.6103,143.2079,11.7586,0.0834,14.4919,-119.0881
182162,LL,0,0.165456,-37.0072,0.156123,-161.6665,1.260254,90.0612,2821.4137,116.8274,3119.1468,-32.5121,16.3328,-117.4343
182162,LL,10,0.832337,-37.3941,0.933708,-162.5407,1.086152,91.8585,584.2638,140.9284,670.079,15.1733,15.2741,-121.3412
182162,LL,20,0.919244,-35.1953,0.990236,-157.5134,1.056081,90.6813,334.294,143.2588,363.9744,20.723,14.6444,-120.4209
182162,LL,30,0.948628,-34.0055,1.001582,-155.3405,1.039261,90.2858,234.9259,144.2544,249.6645,22.812,14.5885,-119.8045
182162,LL,40,0.966691,-33.452,1.009362,-154.3445,1.034458,89.9326,182.6394,144.5383,191.5417,23.5859,14.5193,-119.6041
182162,3LG,0,0.16434,-40.3682,0.165005,-160.1527,0.164118,79.7875,3304.9446,102.877,3315.0775,-17.0579,3306.8254,-137.09
182162,3LG,10,0.90406,-38.4489,0.908782,-158.2124,0.902132,81.726,644.1632,139.8156,647.6093,20.0301,645.8022,-100.1311
182162,3LG,20,0.95949,-35.1615,0.964154,-154.8911,0.956926,85.0139,351.4349,143.2987,353.1708,23.5451,353.2231,-96.7376
182162,3LG,30,0.980807,-34.015,0.985403,-153.7322,0.977966,86.1588,243.8782,144.263,245.0354,24.5157,245.8223,-95.8601
182162,3LG,40,0.991689,-33.4155,0.996228,-153.1262,0.988691,86.7566,187.8594,144.59,188.7296,24.8417,189.9125,-95.6151
